<routes>
    
    <route id="route_ns" edges="n_t t_s" />
    
    <route id="route_ne" edges="n_t t_e" />

    
    <route id="route_ew" edges="e_t t_w" />
    
    <route id="route_es" edges="e_t t_s" />

    
    <route id="route_sn" edges="s_t t_n" />
    
    <route id="route_sw" edges="s_t t_w" />

    
    <route id="route_we" edges="w_t t_e" />
    
    <route id="route_wn" edges="w_t t_n" />
    
<flow id="low_route_we" type="DEFAULT_VEHTYPE" route="route_we" begin="0" end="150" vehsPerHour="100" />
<flow id="low_route_ew" type="DEFAULT_VEHTYPE" route="route_ew" begin="0" end="150" vehsPerHour="100" />
<flow id="low_route_ns" type="DEFAULT_VEHTYPE" route="route_ns" begin="0" end="150" vehsPerHour="80" />
<flow id="low_route_sn" type="DEFAULT_VEHTYPE" route="route_sn" begin="0" end="150" vehsPerHour="80" />
<flow id="medium_route_we" type="DEFAULT_VEHTYPE" route="route_we" begin="150" end="350" vehsPerHour="200" />
<flow id="medium_route_ew" type="DEFAULT_VEHTYPE" route="route_ew" begin="150" end="350" vehsPerHour="200" />
<flow id="medium_route_ns" type="DEFAULT_VEHTYPE" route="route_ns" begin="150" end="350" vehsPerHour="160" />
<flow id="medium_route_sn" type="DEFAULT_VEHTYPE" route="route_sn" begin="150" end="350" vehsPerHour="160" />
<flow id="high_route_we" type="DEFAULT_VEHTYPE" route="route_we" begin="350" end="500" vehsPerHour="400" />
<flow id="high_route_ew" type="DEFAULT_VEHTYPE" route="route_ew" begin="350" end="500" vehsPerHour="400" />
<flow id="high_route_ns" type="DEFAULT_VEHTYPE" route="route_ns" begin="350" end="500" vehsPerHour="320" />
<flow id="high_route_sn" type="DEFAULT_VEHTYPE" route="route_sn" begin="350" end="500" vehsPerHour="320" />
</routes>